Version 4
SHEET 1 1068 680
WIRE 480 192 256 192
WIRE 256 288 256 256
WIRE 480 288 480 272
FLAG 256 368 0
FLAG 480 288 0
SYMBOL Misc\\SCR 240 192 R0
SYMATTR InstName U
SYMATTR Value S6012R
SYMBOL voltage 480 176 R0
WINDOW 123 0 0 Left 0
WINDOW 39 0 0 Left 0
SYMATTR InstName V2
SYMATTR Value PULSE(0 410 0 1 1 0 0 1)
SYMBOL res 240 272 R0
SYMATTR InstName R1
SYMATTR Value 40
TEXT -72 32 Left 2 !.lib"C:\\Program Files\\LTC\\LTspiceXVII\\lib\\sub\\Thyristor_SCR_Sxx12x_A_SPICE_Model_lib.htm"
TEXT -74 392 Left 2 !.tran 2m
