Version 4
SHEET 1 880 680
WIRE 144 96 -32 96
WIRE -32 144 -32 96
WIRE 144 144 144 96
WIRE 144 240 144 208
WIRE -32 272 -32 224
WIRE 144 336 144 320
FLAG -32 272 0
FLAG 144 336 0
SYMBOL diode 128 144 R0
SYMATTR InstName D1
SYMATTR Value MURS120
SYMBOL voltage -32 128 R0
WINDOW 123 0 0 Left 0
WINDOW 39 0 0 Left 0
SYMATTR InstName V1
SYMATTR Value SINE(0 10 50)
SYMBOL res 128 224 R0
SYMATTR InstName R
SYMATTR Value 10k
TEXT -64 296 Left 2 !;tran 1
TEXT -66 360 Left 2 !.tran 1
